<additional>
	<edgeData id="1" file="edge_data_300" freq="300.0"/>
    <edgeData id="2" file="edge_data_900" freq="900.0"/>
    <edgeData id="3" file="edge_data_3600" freq="3600.0"/>
    <e1Detector file="out.xml" freq="900.0" id="e1Detector_-113966147#1_0_1007" lane="-113966147#1_0" pos="417.73" name="10609001">
        <param key="C" value="48.126712, 11.658546"/>
    </e1Detector>
    <e1Detector file="out.xml" freq="900.0" id="e1Detector_-114254840#1_0_74" lane="-114254840#1_0" pos="8.9" name="10015006">
        <param key="C" value="48.125124, 11.599282"/>
    </e1Detector>
    <e1Detector file="out.xml" freq="900.0" id="e1Detector_-11635292_0_729" lane="-11635292_0" pos="33.62" name="10935014">
        <param key="C" value="48.176725, 11.461429"/>
    </e1Detector>
    <e1Detector file="out.xml" freq="900.0" id="e1Detector_-11635292_1_730" lane="-11635292_1" pos="33.57" name="10935015">
        <param key="C" value="48.176756, 11.461432"/>
    </e1Detector>
    <e1Detector file="out.xml" freq="900.0" id="e1Detector_-14187414_0_873" lane="-14187414_0" pos="904.29" name="10988004">
        <param key="C" value="48.095220, 11.481102"/>
    </e1Detector>
    <e1Detector file="out.xml" freq="900.0" id="e1Detector_-143303450_0_388" lane="-143303450_0" pos="400.27" name="10814001">
        <param key="C" value="48.098941, 11.559657"/>
    </e1Detector>
    <e1Detector file="out.xml" freq="900.0" id="e1Detector_-143304972#1_0_189" lane="-143304972#1_0" pos="34.84" name="10051003">
        <param key="C" value="48.100633, 11.540775"/>
    </e1Detector>
    <e1Detector file="out.xml" freq="900.0" id="e1Detector_-143304972#1_1_190" lane="-143304972#1_1" pos="34.33" name="10051004">
        <param key="C" value="48.100659, 11.540747"/>
    </e1Detector>
    <e1Detector file="out.xml" freq="900.0" id="e1Detector_-146800313#2_0_139" lane="-146800313#2_0" pos="28.39" name="10029005">
        <param key="C" value="48.137322, 11.564260"/>
    </e1Detector>
    <e1Detector file="out.xml" freq="900.0" id="e1Detector_-146800313#2_1_138" lane="-146800313#2_1" pos="28.93" name="10029006">
        <param key="C" value="48.137347, 11.564295"/>
    </e1Detector>
    <e1Detector file="out.xml" freq="900.0" id="e1Detector_-146800313#2_2_137" lane="-146800313#2_2" pos="28.75" name="10029007">
        <param key="C" value="48.137386, 11.564284"/>
    </e1Detector>
    <e1Detector file="out.xml" freq="900.0" id="e1Detector_-151754277#1_1_1010" lane="-410655508_0" pos="41.63" name="11055004">
        <param key="C" value="48.157625, 11.574795"/>
    </e1Detector>
    <e1Detector file="out.xml" freq="900.0" id="e1Detector_-151878378_0_68" lane="-151878378_0" pos="47.77" name="10012004">
        <param key="C" value="48.142767, 11.576907"/>
    </e1Detector>
    <e1Detector file="out.xml" freq="900.0" id="e1Detector_-152570499_0_1111" lane="-152570499_0" pos="347.23" name="11094001">
        <param key="C" value="48.136287, 11.668076"/>
    </e1Detector>
    <e1Detector file="out.xml" freq="900.0" id="e1Detector_-152570499_1_1112" lane="-152570499_1" pos="346.76" name="11094002">
        <param key="C" value="48.136270, 11.668113"/>
    </e1Detector>
    <e1Detector file="out.xml" freq="900.0" id="e1Detector_-153184478#2_0_405" lane="-153184478#2_0" pos="944.89" name="10825003">
        <param key="C" value="48.121149, 11.497381"/>
    </e1Detector>
    <e1Detector file="out.xml" freq="900.0" id="e1Detector_-15777952_0_890" lane="-15777952_0" pos="7.15" name="10995001">
        <param key="C" value="48.141094, 11.710772"/>
    </e1Detector>
    <e1Detector file="out.xml" freq="900.0" id="e1Detector_-15777952_1_889" lane="-15777952_1" pos="7.34" name="10995002">
        <param key="C" value="48.141077, 11.710737"/>
    </e1Detector>
    <e1Detector file="out.xml" freq="900.0" id="e1Detector_-157959490#3_0_359" lane="-157959490#3_0" pos="393.28" name="10798004">
        <param key="C" value="48.108122, 11.664085"/>
    </e1Detector>
    <e1Detector file="out.xml" freq="900.0" id="e1Detector_-168719672_0_356" lane="-168719672_0" pos="8.16" name="10093009">
        <param key="C" value="48.126738, 11.557771"/>
    </e1Detector>
    <e1Detector file="out.xml" freq="900.0" id="e1Detector_-185529649_0_195" lane="-185529649_0" pos="10.65" name="10051009">
        <param key="C" value="48.101251, 11.541159"/>
    </e1Detector>
    <e1Detector file="out.xml" freq="900.0" id="e1Detector_-19116365_0_591" lane="-19116365_0" pos="65.54" name="4107011">
        <param key="C" value="48.182747, 11.508969"/>
    </e1Detector>
    <e1Detector file="out.xml" freq="900.0" id="e1Detector_-19116365_1_590" lane="-19116365_1" pos="65.36" name="4107012">
        <param key="C" value="48.182715, 11.508962"/>
    </e1Detector>
    <e1Detector file="out.xml" freq="900.0" id="e1Detector_-191567981_0_546" lane="-191567981_0" pos="14.54" name="4046011">
        <param key="C" value="48.140111, 11.677772"/>
    </e1Detector>
    <e1Detector file="out.xml" freq="900.0" id="e1Detector_-201785595_0_575" lane="-201785595_0" pos="16.7" name="4075011">
        <param key="C" value="48.141211, 11.686438"/>
    </e1Detector>
    <e1Detector file="out.xml" freq="900.0" id="e1Detector_-204781773_0_441" lane="-204781773_0" pos="910.68" name="10867005">
        <param key="C" value="48.173792, 11.449162"/>
    </e1Detector>
    <e1Detector file="out.xml" freq="900.0" id="e1Detector_-204781773_1_442" lane="-204781773_1" pos="910.79" name="10867006">
        <param key="C" value="48.173753, 11.449148"/>
    </e1Detector>
    <e1Detector file="out.xml" freq="900.0" id="e1Detector_-220849982#2_0_117" lane="-220849982#2_0" pos="908.85" name="10668003" friendlyPos="1">
        <param key="C" value="48.136849, 11.484728"/>
    </e1Detector>
    <e1Detector file="out.xml" freq="900.0" id="e1Detector_-224109865#1_0_995" lane="-224109865#1_0" pos="11.99" name="11054033">
        <param key="C" value="48.139189, 11.713285"/>
    </e1Detector>
    <e1Detector file="out.xml" freq="900.0" id="e1Detector_-224109865#1_1_996" lane="-224109865#1_1" pos="11.82" name="11054032">
        <param key="C" value="48.139159, 11.713264"/>
    </e1Detector>
    <e1Detector file="out.xml" freq="900.0" id="e1Detector_-239068374#2.676_0_856" lane="-239068374#2.676_0" pos="17.34" name="10984007">
        <param key="C" value="48.164097, 11.434053"/>
    </e1Detector>
    <e1Detector file="out.xml" freq="900.0" id="e1Detector_-239068374#2.676_1_855" lane="-239068374#2.676_1" pos="17.18" name="10984006">
        <param key="C" value="48.164070, 11.434035"/>
    </e1Detector>
    <e1Detector file="out.xml" freq="900.0" id="e1Detector_-241052498#1_0_251" lane="-241052498#1_0" pos="216.12" name="10070001">
        <param key="C" value="48.129092, 11.578914"/>
    </e1Detector>
    <e1Detector file="out.xml" freq="900.0" id="e1Detector_-241052498#1_1_252" lane="-241052498#1_1" pos="215.69" name="10070002">
        <param key="C" value="48.129056, 11.578751"/>
    </e1Detector>
    <e1Detector file="out.xml" freq="900.0" id="e1Detector_-243318633#1_0_332" lane="-243318633#1_0" pos="891.12" name="10769001">
        <param key="C" value="48.139963, 11.456765"/>
    </e1Detector>
    <e1Detector file="out.xml" freq="900.0" id="e1Detector_-243318633#1_1_331" lane="-243318633#1_1" pos="891.04" name="10769002">
        <param key="C" value="48.140085, 11.456919"/>
    </e1Detector>
    <e1Detector file="out.xml" freq="900.0" id="e1Detector_-24947433#2_0_404" lane="-24947433#2_0" pos="661.51" name="10822009" friendlyPos="1">
        <param key="C" value="48.103524, 11.659661"/>
    </e1Detector>
    <e1Detector file="out.xml" freq="900.0" id="e1Detector_-258549684_0_397" lane="-146645723_0" pos="113.94" name="10816002">
        <param key="C" value="48.079622, 11.502524"/>
    </e1Detector>
    <e1Detector file="out.xml" freq="900.0" id="e1Detector_-25943198_0_67" lane="-25943198_0" pos="197.32" name="10012003">
        <param key="C" value="48.142709, 11.577010"/>
    </e1Detector>
    <e1Detector file="out.xml" freq="900.0" id="e1Detector_-264448401#5_0_703" lane="-264448401#5_0" pos="552.92" name="10927001">
        <param key="C" value="48.131887, 11.529745"/>
    </e1Detector>
    <e1Detector file="out.xml" freq="900.0" id="e1Detector_-26696145_0_353" lane="-26696145_0" pos="394.4" name="10796003">
        <param key="C" value="48.123731, 11.667252"/>
    </e1Detector>
    <e1Detector file="out.xml" freq="900.0" id="e1Detector_-26696145_1_354" lane="-26696145_1" pos="395.19" name="10796004">
        <param key="C" value="48.123857, 11.666993"/>
    </e1Detector>
    <e1Detector file="out.xml" freq="900.0" id="e1Detector_-26824141#1_0_76" lane="-26824141#1_0" pos="51.68" name="10664009">
        <param key="C" value="48.169163, 11.635123"/>
    </e1Detector>
    <e1Detector file="out.xml" freq="900.0" id="e1Detector_-26824141#1_1_77" lane="-26824141#1_1" pos="51.46" name="10664010">
        <param key="C" value="48.169111, 11.635217"/>
    </e1Detector>
    <e1Detector file="out.xml" freq="900.0" id="e1Detector_-26824141#1_2_78" lane="-26824141#1_2" pos="51.85" name="10664011">
        <param key="C" value="48.169095, 11.635163"/>
    </e1Detector>
    <e1Detector file="out.xml" freq="900.0" id="e1Detector_-26824377_0_326" lane="-26824377_0" pos="251.37" name="10768001">
        <param key="C" value="48.183450, 11.608133"/>
    </e1Detector>
    <e1Detector file="out.xml" freq="900.0" id="e1Detector_-26824377_1_327" lane="-26824377_1" pos="250.74" name="10768002">
        <param key="C" value="48.183438, 11.608182"/>
    </e1Detector>
    <e1Detector file="out.xml" freq="900.0" id="e1Detector_-270851793#3_0_330" lane="-270851793#3_0" pos="663.41" name="10769003" friendlyPos="1">
        <param key="C" value="48.140393, 11.456732"/>
    </e1Detector>
    <e1Detector file="out.xml" freq="900.0" id="e1Detector_-272795302#4_0_268" lane="-272795302#4_0" pos="432.0" name="10738001">
        <param key="C" value="48.140334, 11.462839"/>
    </e1Detector>
    <e1Detector file="out.xml" freq="900.0" id="e1Detector_-27351515_0_341" lane="-27351515_0" pos="854.46" name="10778001" friendlyPos="1">
        <param key="C" value="48.163920, 11.443709"/>
    </e1Detector>
    <e1Detector file="out.xml" freq="900.0" id="e1Detector_-280614998_0_945" lane="-280614998_0" pos="581.75" name="11024006">
        <param key="C" value="48.132694, 11.591110"/>
    </e1Detector>
    <e1Detector file="out.xml" freq="900.0" id="e1Detector_-292748634#4_0_276" lane="-292748634#4_0" pos="546.24" name="10743004">
        <param key="C" value="48.096292, 11.646983"/>
    </e1Detector>
    <e1Detector file="out.xml" freq="900.0" id="e1Detector_-29448442#1_0_186" lane="-29448442#1_0" pos="7.97" name="10049015">
        <param key="C" value="48.124965, 11.549402"/>
    </e1Detector>
    <e1Detector file="out.xml" freq="900.0" id="e1Detector_-29448442#1_1_187" lane="-29448442#1_1" pos="7.42" name="10049016">
        <param key="C" value="48.124952, 11.549438"/>
    </e1Detector>
    <e1Detector file="out.xml" freq="900.0" id="e1Detector_-29461886#1_0_434" lane="-29461886#1_0" pos="226.99" name="10864001">
        <param key="C" value="48.133945, 11.544257"/>
    </e1Detector>
    <e1Detector file="out.xml" freq="900.0" id="e1Detector_-295931062#3_0_120" lane="-295931062#3_0" pos="561.52" name="10670007">
        <param key="C" value="48.098806, 11.637091"/>
    </e1Detector>
    <e1Detector file="out.xml" freq="900.0" id="e1Detector_-295931062#3_1_121" lane="-295931062#3_1" pos="561.75" name="10670008">
        <param key="C" value="48.098811, 11.636911"/>
    </e1Detector>
    <e1Detector file="out.xml" freq="900.0" id="e1Detector_-304423860#1_0_183" lane="-304423860#1_0" pos="10.59" name="10049017">
        <param key="C" value="48.125247, 11.549425"/>
    </e1Detector>
    <e1Detector file="out.xml" freq="900.0" id="e1Detector_-30578368#1.389_0_781" lane="-30578368#1.389_0" pos="21.98" name="10947005">
        <param key="C" value="48.135378, 11.502550"/>
    </e1Detector>
    <e1Detector file="out.xml" freq="900.0" id="e1Detector_-30578368#1.389_1_782" lane="-30578368#1.389_1" pos="21.43" name="10947006">
        <param key="C" value="48.135413, 11.502537"/>
    </e1Detector>
    <e1Detector file="out.xml" freq="900.0" id="e1Detector_-30604409#4_0_390" lane="-30604409#4_0" pos="124.17" name="10815006">
        <param key="C" value="48.096930, 11.644670"/>
    </e1Detector>
    <e1Detector file="out.xml" freq="900.0" id="e1Detector_-307848388#1_0_1069" lane="-307848388#1_0" pos="136.57" name="11085001">
        <param key="C" value="48.144335, 11.707872"/>
    </e1Detector>
    <e1Detector file="out.xml" freq="900.0" id="e1Detector_-307848388#1_1_1070" lane="-307848388#1_1" pos="136.96" name="11085002">
        <param key="C" value="48.144446, 11.707848"/>
    </e1Detector>
    <e1Detector file="out.xml" freq="900.0" id="e1Detector_-30816922#3_0_359" lane="-30816922#3_0" pos="131.94" name="10094004">
        <param key="C" value="48.163296, 11.574567"/>
    </e1Detector>
    <e1Detector file="out.xml" freq="900.0" id="e1Detector_-30917885#1_0_14" lane="-30917885#1_0" pos="52.68" name="10004012">
        <param key="C" value="48.132682, 11.585166"/>
    </e1Detector>
    <e1Detector file="out.xml" freq="900.0" id="e1Detector_-30917885#1_1_15" lane="-30917885#1_1" pos="52.52" name="10004013">
        <param key="C" value="48.132677, 11.585213"/>
    </e1Detector>
    <e1Detector file="out.xml" freq="900.0" id="e1Detector_-30917885#1_2_16" lane="-30917885#1_2" pos="52.44" name="10004014">
        <param key="C" value="48.132582, 11.585165"/>
    </e1Detector>
    <e1Detector file="out.xml" freq="900.0" id="e1Detector_-30984912_0_466" lane="-30984912_0" pos="364.43" name="10119003">
        <param key="C" value="48.213275, 11.555993"/>
    </e1Detector>
    <e1Detector file="out.xml" freq="900.0" id="e1Detector_-31130637_0_188" lane="-31130637_0" pos="298.22" name="10054001">
        <param key="C" value="48.100238, 11.541413"/>
    </e1Detector>
    <e1Detector file="out.xml" freq="900.0" id="e1Detector_-311960667_0_1059" lane="-311960667_0" pos="50.67" name="11081001">
        <param key="C" value="48.120987, 11.585367"/>
    </e1Detector>
    <e1Detector file="out.xml" freq="900.0" id="e1Detector_-315825107_0_231" lane="-315825107_0" pos="62.33" name="10060001">
        <param key="C" value="48.119430, 11.575597"/>
    </e1Detector>
    <e1Detector file="out.xml" freq="900.0" id="e1Detector_-315825107_1_232" lane="-315825107_1" pos="62.03" name="10060002">
        <param key="C" value="48.119337, 11.575748"/>
    </e1Detector>
    <e1Detector file="out.xml" freq="900.0" id="e1Detector_-316110472#1_0_594" lane="-316110472#1_0" pos="723.63" name="4110021">
        <param key="C" value="48.145206, 11.480014"/>
    </e1Detector>
    <e1Detector file="out.xml" freq="900.0" id="e1Detector_-316110472#1_1_595" lane="-316110472#1_1" pos="723.44" name="4110022">
        <param key="C" value="48.145206, 11.480014"/>
    </e1Detector>
    <e1Detector file="out.xml" freq="900.0" id="e1Detector_-316275772_0_325" lane="-316275772_0" pos="981.56" name="10766002">
        <param key="C" value="48.179268, 11.496505"/>
    </e1Detector>
    <e1Detector file="out.xml" freq="900.0" id="e1Detector_-317741494#1_0_519" lane="-317741494#1_0" pos="148.39" name="4025011">
        <param key="C" value="48.091791, 11.539372"/>
    </e1Detector>
    <e1Detector file="out.xml" freq="900.0" id="e1Detector_-322760498#1_0_226" lane="-322760498#1_0" pos="18.6" name="10714002">
        <param key="C" value="48.187439, 11.460627"/>
    </e1Detector>
    <e1Detector file="out.xml" freq="900.0" id="e1Detector_-322891826_0_1103" lane="-322891826_0" pos="668.9" name="11090001">
        <param key="C" value="48.090128, 11.563329"/>
    </e1Detector>
    <e1Detector file="out.xml" freq="900.0" id="e1Detector_-32441857_0_58" lane="-32441857_0" pos="499.76" name="10654007">
        <param key="C" value="48.181481, 11.461266"/>
    </e1Detector>
    <e1Detector file="out.xml" freq="900.0" id="e1Detector_-325856474_0_584" lane="-325856474_0" pos="604.36" name="4093011">
        <param key="C" value="48.136927, 11.676474"/>
    </e1Detector>
    <e1Detector file="out.xml" freq="900.0" id="e1Detector_-32854174#9_0_1132" lane="-32854174#9_0" pos="820.71" name="11104003">
        <param key="C" value="48.132573, 11.679744"/>
    </e1Detector>
    <e1Detector file="out.xml" freq="900.0" id="e1Detector_-34072177#1.889_0_839" lane="-34072177#1.889_0" pos="16.44" name="10976003">
        <param key="C" value="48.192475, 11.502158"/>
    </e1Detector>
    <e1Detector file="out.xml" freq="900.0" id="e1Detector_-34072177#1.889_1_840" lane="-34072177#1.889_1" pos="16.45" name="10976004">
        <param key="C" value="48.192482, 11.502124"/>
    </e1Detector>
    <e1Detector file="out.xml" freq="900.0" id="e1Detector_-34072177#1.889_2_841" lane="-34072177#1.889_2" pos="16.91" name="10976005">
        <param key="C" value="48.192485, 11.502084"/>
    </e1Detector>
    <e1Detector file="out.xml" freq="900.0" id="e1Detector_-341900014#5_0_145" lane="-341900014#5_0" pos="1250.4" name="10676004">
        <param key="C" value="48.151078, 11.433788"/>
    </e1Detector>
    <e1Detector file="out.xml" freq="900.0" id="e1Detector_-344014591#2_0_155" lane="-344014591#2_0" pos="39.82" name="10684031">
        <param key="C" value="48.208803, 11.563612"/>
    </e1Detector>
    <e1Detector file="out.xml" freq="900.0" id="e1Detector_-34554615#4_0_119" lane="-34554615#4_0" pos="752.24" name="10668002">
        <param key="C" value="48.136716, 11.485093"/>
    </e1Detector>
    <e1Detector file="out.xml" freq="900.0" id="e1Detector_-35108720#3_0_101" lane="-35108720#3_0" pos="492.29" name="10666001">
        <param key="C" value="48.100925, 11.625805"/>
    </e1Detector>
    <e1Detector file="out.xml" freq="900.0" id="e1Detector_-353666023_0_360" lane="-353666023_0" pos="512.42" name="10798003">
        <param key="C" value="48.108701, 11.664071"/>
    </e1Detector>
    <e1Detector file="out.xml" freq="900.0" id="e1Detector_-3577199_0_1107" lane="-3577199_0" pos="179.2" name="11094003">
        <param key="C" value="48.135889, 11.668379"/>
    </e1Detector>
    <e1Detector file="out.xml" freq="900.0" id="e1Detector_-3577199_1_1106" lane="-3577199_1" pos="178.83" name="11094004">
        <param key="C" value="48.135854, 11.668358"/>
    </e1Detector>
    <e1Detector file="out.xml" freq="900.0" id="e1Detector_-3577199_2_1105" lane="-3577199_2" pos="179.11" name="11094005">
        <param key="C" value="48.135816, 11.668384"/>
    </e1Detector>
    <e1Detector file="out.xml" freq="900.0" id="e1Detector_-3615971#4_0_376" lane="-3615971#4_0" pos="201.1" name="10807003">
        <param key="C" value="48.128615, 11.646066"/>
    </e1Detector>
    <e1Detector file="out.xml" freq="900.0" id="e1Detector_-366231807#3_0_39" lane="-366231807#3_0" pos="132.6" name="10633002">
        <param key="C" value="48.121765, 11.578722"/>
    </e1Detector>
    <e1Detector file="out.xml" freq="900.0" id="e1Detector_-366721040#2_0_751" lane="-366721040#2_0" pos="106.1" name="10941001">
        <param key="C" value="48.112288, 11.553172"/>
    </e1Detector>
    <e1Detector file="out.xml" freq="900.0" id="e1Detector_-366721040#2_1_750" lane="-366721040#2_1" pos="110.72" name="10941002">
        <param key="C" value="48.112319, 11.553216"/>
    </e1Detector>
    <e1Detector file="out.xml" freq="900.0" id="e1Detector_-368992148_0_378" lane="-368992148_0" pos="330.93" name="10808012">
        <param key="C" value="48.112976, 11.533766"/>
    </e1Detector>
    <e1Detector file="out.xml" freq="900.0" id="e1Detector_-37665502#6_0_233" lane="-37665502#6_0" pos="18.21" name="10060003">
        <param key="C" value="48.119619, 11.575046"/>
    </e1Detector>
    <e1Detector file="out.xml" freq="900.0" id="e1Detector_-380316701#2_0_248" lane="-380316701#2_0" pos="47.59" name="10726005">
        <param key="C" value="48.146686, 11.640037"/>
    </e1Detector>
    <e1Detector file="out.xml" freq="900.0" id="e1Detector_-380316701#2_1_247" lane="-380316701#2_1" pos="47.66" name="10726006">
        <param key="C" value="48.146620, 11.640059"/>
    </e1Detector>
    <e1Detector file="out.xml" freq="900.0" id="e1Detector_-38349485#1_0_13" lane="-38349485#1_0" pos="21.76" name="10004008">
        <param key="C" value="48.132137, 11.584799"/>
    </e1Detector>
    <e1Detector file="out.xml" freq="900.0" id="e1Detector_-38349485#1_1_11" lane="-38349485#1_1" pos="22.65" name="10004006">
        <param key="C" value="48.131956, 11.584495"/>
    </e1Detector>
    <e1Detector file="out.xml" freq="900.0" id="e1Detector_-38349485#1_2_12" lane="-38349485#1_2" pos="21.44" name="10004007">
        <param key="C" value="48.131964, 11.584459"/>
    </e1Detector>
    <e1Detector file="out.xml" freq="900.0" id="e1Detector_-38876178#0_0_407" lane="-38876178#0_0" pos="169.3" name="10827010">
        <param key="C" value="48.116680, 11.668995"/>
    </e1Detector>
    <e1Detector file="out.xml" freq="900.0" id="e1Detector_-392518626#2_0_1001" lane="-392518626#2_0" pos="26.04" name="10607001">
        <param key="C" value="48.128354, 11.474388"/>
    </e1Detector>
    <e1Detector file="out.xml" freq="900.0" id="e1Detector_-392518626#2_1_1002" lane="-392518626#2_1" pos="26.36" name="10607002">
        <param key="C" value="48.128378, 11.474418"/>
    </e1Detector>
    <e1Detector file="out.xml" freq="900.0" id="e1Detector_-41532483_0_100" lane="-41532483_0" pos="1136.34" name="10666002">
        <param key="C" value="48.100925, 11.625805"/>
    </e1Detector>
    <e1Detector file="out.xml" freq="900.0" id="e1Detector_-41532483_1_99" lane="-41532483_1" pos="1137.0" name="10666003">
        <param key="C" value="48.100955, 11.625833"/>
    </e1Detector>
    <e1Detector file="out.xml" freq="900.0" id="e1Detector_-419896654_0_389" lane="-14328335_0" pos="16.29" name="10814002">
        <param key="C" value="48.099206, 11.559831"/>
    </e1Detector>
    <e1Detector file="out.xml" freq="900.0" id="e1Detector_-4212606#1_0_1004" lane="-4212606#1_0" pos="36.32" name="11054010">
        <param key="C" value="48.139247, 11.713686"/>
    </e1Detector>
    <e1Detector file="out.xml" freq="900.0" id="e1Detector_-4212606#1_1_1003" lane="-4212606#1_1" pos="36.79" name="11054011">
        <param key="C" value="48.139294, 11.713832"/>
    </e1Detector>
    <e1Detector file="out.xml" freq="900.0" id="e1Detector_-4212606#1_2_1002" lane="-4212606#1_2" pos="36.33" name="11054012">
        <param key="C" value="48.139165, 11.713644"/>
    </e1Detector>
    <e1Detector file="out.xml" freq="900.0" id="e1Detector_-4364374_0_339" lane="-4364374_0" pos="1505.37" name="10777002" friendlyPos="1">
        <param key="C" value="48.197330, 11.458146"/>
    </e1Detector>
    <e1Detector file="out.xml" freq="900.0" id="e1Detector_-4364374_1_338" lane="-4364374_1" pos="1505.82" name="10777003" friendlyPos="1">
        <param key="C" value="48.197174, 11.458194"/>
    </e1Detector>
    <e1Detector file="out.xml" freq="900.0" id="e1Detector_-4488902#2_0_988" lane="-4488902#2_0" pos="22.78" name="11054013">
        <param key="C" value="48.138743, 11.713821"/>
    </e1Detector>
    <e1Detector file="out.xml" freq="900.0" id="e1Detector_-4488902#2_1_987" lane="-4488902#2_1" pos="23.16" name="11054014">
        <param key="C" value="48.138743, 11.713821"/>
    </e1Detector>
    <e1Detector file="out.xml" freq="900.0" id="e1Detector_-4902090_0_592" lane="-4902090_0" pos="835.47" name="4109021">
        <param key="C" value="48.164143, 11.479953"/>
    </e1Detector>
    <e1Detector file="out.xml" freq="900.0" id="e1Detector_-4902090_1_593" lane="-4902090_1" pos="837.06" name="4109022">
        <param key="C" value="48.164143, 11.479953"/>
    </e1Detector>
    <e1Detector file="out.xml" freq="900.0" id="e1Detector_-49302407#2_0_340" lane="-75070560_0" pos="7.61" name="10787001">
        <param key="C" value="48.090497, 11.662183"/>
    </e1Detector>
    <e1Detector file="out.xml" freq="900.0" id="e1Detector_-500266712_0_74" lane="-500266712_0" pos="31.34" name="10663002">
        <param key="C" value="48.176438, 11.630507"/>
    </e1Detector>
    <e1Detector file="out.xml" freq="900.0" id="e1Detector_-500266712_1_73" lane="-500266712_1" pos="30.71" name="10663003">
        <param key="C" value="48.176258, 11.630551"/>
    </e1Detector>
    <e1Detector file="out.xml" freq="900.0" id="e1Detector_-56680705_0_510" lane="-56680705_0" pos="1040.6" name="4022013">
        <param key="C" value="48.130111, 11.657762"/>
    </e1Detector>
    <e1Detector file="out.xml" freq="900.0" id="e1Detector_-56680705_1_509" lane="-56680705_1" pos="1040.52" name="4022014">
        <param key="C" value="48.130093, 11.657778"/>
    </e1Detector>
    <e1Detector file="out.xml" freq="900.0" id="e1Detector_-575067078_1_259" lane="-575067078_1" pos="9.59" name="10076004">
        <param key="C" value="48.141884, 11.561725"/>
    </e1Detector>
    <e1Detector file="out.xml" freq="900.0" id="e1Detector_-575067078_2_260" lane="-575067078_2" pos="9.64" name="10076005">
        <param key="C" value="48.141909, 11.561730"/>
    </e1Detector>
    <e1Detector file="out.xml" freq="900.0" id="e1Detector_-575067078_3_261" lane="-575067078_3" pos="9.6" name="10076006">
        <param key="C" value="48.141911, 11.561819"/>
    </e1Detector>
    <e1Detector file="out.xml" freq="900.0" id="e1Detector_-592844775#4_0_161" lane="-592844775#4_0" pos="242.13" name="10042002">
        <param key="C" value="48.115401, 11.572737"/>
    </e1Detector>
    <e1Detector file="out.xml" freq="900.0" id="e1Detector_-622091754#1_0_352" lane="-622091754#1_0" pos="18.43" name="10093003">
        <param key="C" value="48.126568, 11.558435"/>
    </e1Detector>
    <e1Detector file="out.xml" freq="900.0" id="e1Detector_-629519738_0_97" lane="-629519738_0" pos="51.15" name="10019003">
        <param key="C" value="48.121428, 11.541104"/>
    </e1Detector>
    <e1Detector file="out.xml" freq="900.0" id="e1Detector_-629519738_1_96" lane="-629519738_1" pos="49.62" name="10019004">
        <param key="C" value="48.121309, 11.541101"/>
    </e1Detector>
    <e1Detector file="out.xml" freq="900.0" id="e1Detector_-75078151#1_0_275" lane="-75078151#1_0" pos="376.97" name="10740004">
        <param key="C" value="48.117306, 11.640126"/>
    </e1Detector>
    <e1Detector file="out.xml" freq="900.0" id="e1Detector_-86414062_0_282" lane="-86414062_0" pos="246.73" name="10080008">
        <param key="C" value="48.166420, 11.590813"/>
    </e1Detector>
    <e1Detector file="out.xml" freq="900.0" id="e1Detector_-86414062_1_283" lane="-86414062_1" pos="246.85" name="10080009">
        <param key="C" value="48.166501, 11.590575"/>
    </e1Detector>
    <e1Detector file="out.xml" freq="900.0" id="e1Detector_-88714905#4_0_266" lane="-88714905#4_0" pos="347.04" name="10736003">
        <param key="C" value="48.167474, 11.569738"/>
    </e1Detector>
    <e1Detector file="out.xml" freq="900.0" id="e1Detector_-88714905#4_1_265" lane="-88714905#4_1" pos="346.76" name="10736004">
        <param key="C" value="48.167505, 11.569763"/>
    </e1Detector>
    <e1Detector file="out.xml" freq="900.0" id="e1Detector_-89840550#1_0_156" lane="-89840550#1_0" pos="654.02" name="10038002">
        <param key="C" value="48.149143, 11.572023"/>
    </e1Detector>
    <e1Detector file="out.xml" freq="900.0" id="e1Detector_-90236830_0_170" lane="-90236830_0" pos="595.78" name="10690005">
        <param key="C" value="48.162536, 11.645039"/>
    </e1Detector>
    <e1Detector file="out.xml" freq="900.0" id="e1Detector_-90236830_1_171" lane="-90236830_1" pos="595.32" name="10690006">
        <param key="C" value="48.162439, 11.645076"/>
    </e1Detector>
    <e1Detector file="out.xml" freq="900.0" id="e1Detector_-9258606#2_0_57" lane="-9258606#2_0" pos="300.79" name="10654010">
        <param key="C" value="48.181673, 11.461420"/>
    </e1Detector>
    <e1Detector file="out.xml" freq="900.0" id="e1Detector_-97241128_0_1122" lane="-97241128_0" pos="32.3" name="11101008">
        <param key="C" value="48.151492, 11.581623"/>
    </e1Detector>
    <e1Detector file="out.xml" freq="900.0" id="e1Detector_-97241128_1_1123" lane="-97241128_1" pos="31.45" name="11101009">
        <param key="C" value="48.151492, 11.581668"/>
    </e1Detector>
    <e1Detector file="out.xml" freq="900.0" id="e1Detector_-97241128_2_1124" lane="-97241128_2" pos="31.69" name="11101010">
        <param key="C" value="48.151477, 11.581708"/>
    </e1Detector>
    <e1Detector file="out.xml" freq="900.0" id="e1Detector_10073617#0.374_0_190" lane="10073617#0.374_0" pos="22.43" name="10699015">
        <param key="C" value="48.175957, 11.529151"/>
    </e1Detector>
    <e1Detector file="out.xml" freq="900.0" id="e1Detector_10073617#0.374_1_191" lane="10073617#0.374_1" pos="22.52" name="10699016">
        <param key="C" value="48.175970, 11.529101"/>
    </e1Detector>
    <e1Detector file="out.xml" freq="900.0" id="e1Detector_10073617#0.374_2_192" lane="10073617#0.374_2" pos="23.2" name="10699017">
        <param key="C" value="48.176132, 11.529091"/>
    </e1Detector>
    <e1Detector file="out.xml" freq="900.0" id="e1Detector_102489827.793_0_826" lane="102489827.793_0" pos="30.33" name="10969005">
        <param key="C" value="48.201654, 11.491177"/>
    </e1Detector>